Circuit: * C:\Users\andre\Desktop\Universita\PrimoAnno\SecondoSemestre\ProgettiAnalogici\FilterProject\LTspice\ChebishevOnePole.asc

Direct Newton iteration for .op point succeeded.

Date: Fri Aug 25 21:22:58 2023
Total elapsed time: 0.204 seconds.

tnom = 27
temp = 27
method = trap
totiter = 3
traniter = 0
tranpoints = 0
accept = 0
rejected = 0
matrix size = 19
fillins = 15
solver = Normal
Matrix Compiler1:      91 opcodes
Matrix Compiler2: 1.61 KB object code size
