Circuit: * C:\Users\andre\Desktop\Universita\PrimoAnno\SecondoSemestre\ProgettiAnalogici\FilterProject\LTspice\ChebyshevOnePole.asc

Direct Newton iteration for .op point succeeded.

Date: Sat Jul 22 11:07:04 2023
Total elapsed time: 0.058 seconds.

tnom = 27
temp = 27
method = trap
totiter = 3
traniter = 0
tranpoints = 0
accept = 0
rejected = 0
matrix size = 24
fillins = 28
solver = Normal
Matrix Compiler1:     132 opcodes
Matrix Compiler2: 2.11 KB object code size
