Circuit: * C:\Users\andre\Desktop\Universita\PrimoAnno\SecondoSemestre\ProgettiAnalogici\FilterProject\LTspice\CommercialRCTTSKOnePole.asc

Direct Newton iteration for .op point succeeded.

Date: Fri Aug 25 22:24:10 2023
Total elapsed time: 0.055 seconds.

tnom = 27
temp = 27
method = trap
totiter = 3
traniter = 0
tranpoints = 0
accept = 0
rejected = 0
matrix size = 24
fillins = 22
solver = Normal
Matrix Compiler1:     113 opcodes
Matrix Compiler2: 2.02 KB object code size
