Circuit: * C:\Users\andre\Desktop\Universita\PrimoAnno\SecondoSemestre\ProgettiAnalogici\FilterProject\LTspice\CommercialRCOnePole.asc

Direct Newton iteration for .op point succeeded.

Date: Thu Jul 20 22:56:16 2023
Total elapsed time: 0.049 seconds.

tnom = 27
temp = 27
method = trap
totiter = 3
traniter = 0
tranpoints = 0
accept = 0
rejected = 0
matrix size = 19
fillins = 8
solver = Normal
Matrix Compiler1:      70 opcodes
Matrix Compiler2: 1.50 KB object code size
