Circuit: * C:\Users\andre\Desktop\Universita\PrimoAnno\SecondoSemestre\ProgettiAnalogici\FilterProject\LTspice\CommercialRCTTSK.asc

Direct Newton iteration for .op point succeeded.

Date: Sat Jul 22 10:49:25 2023
Total elapsed time: 0.051 seconds.

tnom = 27
temp = 27
method = trap
totiter = 3
traniter = 0
tranpoints = 0
accept = 0
rejected = 0
matrix size = 20
fillins = 10
solver = Normal
Matrix Compiler1:      84 opcodes
Matrix Compiler2: 1.61 KB object code size
