Circuit: * C:\Users\andre\Desktop\Universita\PrimoAnno\SecondoSemestre\ProgettiAnalogici\FilterProject\LTspice\MonteCarloIdeal.asc

Direct Newton iteration for .op point succeeded.

Date: Thu Jul 20 20:00:32 2023
Total elapsed time: 0.048 seconds.

tnom = 27
temp = 27
method = trap
totiter = 3
traniter = 0
tranpoints = 0
accept = 0
rejected = 0
matrix size = 16
fillins = 1
solver = Normal
Matrix Compiler1:      60 opcodes
Matrix Compiler2: 1.19 KB object code size
